NIGLOBAL = 240
NJGLOBAL = 560
DT = 900.

! === module MOM_diag_mediator ===
DIAG_COODS  = "z Z ZSTAR"
DIAG_COORD_DEF_Z = "PARAM"
DIAG_COORD_RES_Z = 5.0, 10.0, 20.0, 50.0, 100.0, 3815.0 ! [m]

! === module nw2_tracers ===

USE_NW2_TRACERS = True			!   [Boolean] default = False
                                	! If true, use the NeverWorld2 tracers.
KHTR = 0.0				!   [m2 s-1] default = 0.0
                                    	! The background along-isopycnal tracer diffusivity.
NW2_TRACER_GROUPS = 1		      	! default = 3
                               		! The number of tracer groups where a group is of three tracers initialized and
                                	! restored to sin(x), y and z, respectively. Each group is restored with an
                                	! independent restoration rate.
NW2_TRACER_RESTORE_TIMESCALE = 730.	!   [days]
                                	! A list of timescales, one for each tracer group.